<routes>
    <vType id="car" accel="0.8" decel="4.5" sigma="0.5" length="5" maxSpeed="70"/>
    <route id="main" color="1,1,0" edges="s1 s2"/>
    <!-- <flow id="main_flow" color="1,1,0" number="100"  begin="0" end= "7200" type="car" route="main"/> -->
</routes>